savnw.raw
0,   100.00, 33, 0, 1, 60.00     / PSS(R)E-33.3    TUE, APR 25 2017  14:54


   101,'NUC-A       ',  21.6000,2,   1,  77,  11,1.02000,  19.2677,1.10000,0.90000,1.10000,0.90000
   102,'NUC-B       ',  21.6000,2,   1,  77,  11,1.02000,  19.2677,1.10000,0.90000,1.10000,0.90000
   151,'NUCPANT     ', 500.0000,1,   1,   1,   1,1.01251,  13.6124,1.10000,0.90000,1.10000,0.90000
   152,'MID500      ', 500.0000,1,   1,   1,   1,1.02595,   1.5551,1.10000,0.90000,1.10000,0.90000
   153,'MID230      ', 230.0000,1,   1,   1,   1,1.00361,  -0.5091,1.10000,0.90000,1.10000,0.90000
   154,'DOWNTN      ', 230.0000,1,   1,   1,   1,0.95670,  -6.6414,1.10000,0.90000,1.10000,0.90000
   201,'HYDRO       ', 500.0000,1,   2,   2,  22,1.03671,   8.9746,1.10000,0.90000,1.10000,0.90000
   202,'EAST500     ', 500.0000,1,   2,   2,   2,1.01701,   1.4719,1.10000,0.90000,1.10000,0.90000
   203,'EAST230     ', 230.0000,1,   2,   2,   2,0.98033,  -3.8306,1.10000,0.90000,1.10000,0.90000
   204,'SUB500      ', 500.0000,1,   2,   2,   2,0.98980,  -0.7281,1.10000,0.90000,1.10000,0.90000
   205,'SUB230      ', 230.0000,1,   2,   2,   2,0.96623,  -5.9278,1.10000,0.90000,1.10000,0.90000
   206,'URBGEN      ',  18.0000,2,   2,   2,  22,1.03985,   0.0755,1.10000,0.90000,1.10000,0.90000
   211,'HYDRO_G     ',  20.0000,2,   2,   2,  22,1.01209,  15.9927,1.10000,0.90000,1.10000,0.90000
  3001,'MINE        ', 230.0000,1,   5,   5,  55,1.03292,  -0.7408,1.10000,0.90000,1.10000,0.90000
  3002,'E. MINE     ', 500.0000,1,   5,   5,   5,1.03210,  -0.8724,1.10000,0.90000,1.10000,0.90000
  3003,'S. MINE     ', 230.0000,1,   5,   5,   5,1.02799,  -1.2754,1.10000,0.90000,1.10000,0.90000
  3004,'WEST        ', 500.0000,1,   5,   5,   5,1.02591,  -1.3198,1.10000,0.90000,1.10000,0.90000
  3005,'WEST        ', 230.0000,1,   5,   5,   5,1.00588,  -3.0085,1.10000,0.90000,1.10000,0.90000
  3006,'UPTOWN      ', 230.0000,1,   5,   5,   5,1.00479,  -1.2241,1.10000,0.90000,1.10000,0.90000
  3007,'RURAL       ', 230.0000,1,   5,   5,   5,0.97881,  -5.8713,1.10000,0.90000,1.10000,0.90000
  3008,'CATDOG      ', 230.0000,1,   5,   5,  55,0.97523,  -6.1266,1.10000,0.90000,1.10000,0.90000
  3011,'MINE_G      ',  13.8000,3,   5,   5,  55,1.04000,   0.0000,1.10000,0.90000,1.10000,0.90000
  3018,'CATDOG_G    ',  13.8000,2,   5,   5,  55,1.03754,  -1.3173,1.10000,0.90000,1.10000,0.90000
0 / END OF BUS DATA, BEGIN LOAD DATA
   153,'1 ',1,   1,   1,     0.000,     0.000,     0.000,     0.000,   193.366,   -96.683,   1,1,0
   154,'1 ',1,   2,   1,     0.000,     0.000,     0.000,     0.000,   633.136,  -474.852,   1,1,0
   154,'2 ',1,   2,   1,     0.000,     0.000,     0.000,     0.000,   422.091,  -369.329, 100,1,0
   203,'1 ',1,   2,   2,     0.000,     0.000,     0.000,     0.000,   304.220,  -152.110,   2,1,0
   205,'1 ',1,   2,   2,     0.000,     0.000,     0.000,     0.000,  1249.479,  -728.863,   2,1,0
  3005,'1 ',1,   5,   5,     0.000,     0.000,     0.000,     0.000,    94.841,   -47.420,   5,1,0
  3007,'1 ',1,   5,   5,     0.000,     0.000,     0.000,     0.000,   195.629,   -73.361,   5,1,0
  3008,'1 ',1,   5,   5,     0.000,     0.000,     0.000,     0.000,   192.234,   -72.088,   5,1,0
0 / END OF LOAD DATA, BEGIN FIXED SHUNT DATA
   151,'1 ',1,     0.000,  -600.000
   154,'1 ',1,     0.000,   300.000
   201,'1 ',1,     0.000,   300.000
   203,'1 ',1,     0.000,    50.000
   205,'1 ',1,     0.000,   300.000
0 / END OF FIXED SHUNT DATA, BEGIN GENERATOR DATA
   101,'1 ',   750.000,    76.603,   600.000,  -100.000,1.02000,     0,   900.000, 1.00000E-2, 3.00000E-1, 0.00000E+0, 0.00000E+0,1.00000,1,  100.0,   810.000,     0.000,  11,0.6667,   1,0.3333
   102,'1 ',   750.000,    76.603,   600.000,  -100.000,1.02000,     0,   900.000, 1.00000E-2, 3.00000E-1, 0.00000E+0, 0.00000E+0,1.00000,1,  100.0,   810.000,     0.000,  11,0.6667,   1,0.3333
   206,'1 ',   800.000,   600.000,   600.000,     0.000,1.04613,     0,  1000.000, 1.00000E-2, 2.50000E-1, 0.00000E+0, 0.00000E+0,1.00000,1,  100.0,   900.000,     0.000,   2,0.4000,  22,0.6000
   211,'1 ',   600.000,  -100.000,   400.000,  -100.000,1.00440,     0,   725.000, 1.00000E-2, 2.60000E-1, 0.00000E+0, 0.00000E+0,1.00000,1,  100.0,   616.250,     0.000,   2,0.4000,  22,0.6000
  3011,'1 ',   140.323,    71.758,   600.000,  -100.000,1.04000,     0,  1000.000, 1.00000E-2, 3.50000E-1, 0.00000E+0, 0.00000E+0,1.00000,1,  100.0,   900.000,     0.000,  55,0.3846,   5,0.3077,  22,0.2308,  11,0.0769
  3018,'1 ',   100.000,    80.000,    80.000,     0.000,1.27690,     0,   130.000, 1.00000E-2, 3.50000E-1, 0.00000E+0, 0.00000E+0,1.00000,1,  100.0,   117.000,     0.000,  55,0.5556,   5,0.4444
0 / END OF GENERATOR DATA, BEGIN BRANCH DATA
   151,   152,'1 ', 2.60000E-3, 4.60000E-2,   3.50000, 1200.00, 1300.00,    1.00,  0.00000,  0.00000,  0.00000,  0.00000,1,1,   0.00,   1,1.0000
   151,   152,'2 ', 2.60000E-3, 4.60000E-2,   3.50000, 1200.00, 1300.00,    1.00,  0.00000,  0.00000,  0.00000,  0.00000,1,1,   0.00,   1,1.0000
   151,   201,'1 ', 1.00000E-3, 1.50000E-2,   1.20000, 1200.00, 1300.00,    1.00,  0.00000,  0.00000,  0.00000,  0.00000,1,1,   0.00,   1,1.0000
   152,   202,'1 ', 8.00000E-4, 1.00000E-2,   0.95000, 1200.00, 1300.00,    1.00,  0.00000,  0.00000,  0.00000,  0.00000,1,2,   0.00,   1,1.0000
   152,  3004,'1 ', 3.00000E-3, 3.00000E-2,   2.50000,    0.00,    0.00,    1.00,  0.00000,  0.00000,  0.00000,  0.00000,1,1,   0.00,   1,1.0000
   153,   154,'1 ', 5.00000E-3, 4.50000E-2,   0.10000,  300.00,  350.00,    1.00,  0.00000,  0.00000,  0.00000,  0.00000,1,1,   0.00,   1,0.7500, 100,0.2500
   153,   154,'2 ', 6.00000E-3, 5.40000E-2,   0.15000,  300.00,  350.00,    1.00,  0.00000,  0.00000,  0.00000,  0.00000,1,1,   0.00,   1,1.0000
   153,  3006,'1 ', 1.00000E-3, 1.20000E-2,   0.03000,    0.00,    0.00,    1.00,  0.00000,  0.00000,  0.00000,  0.00000,1,1,   0.00,   1,1.0000
   154,   203,'1 ', 4.00000E-3, 4.00000E-2,   0.10000,  200.00,  250.00,    1.00,  0.00000,  0.00000,  0.00000,  0.00000,1,1,   0.00,   1,1.0000
   154,   205,'1 ', 3.30000E-4, 3.33000E-3,   0.09000,  600.00,  660.00,    1.00,  0.00000,  0.00000,  0.00000,  0.00000,1,1,   0.00,   1,1.0000
   154,  3008,'1 ', 2.70000E-3, 2.20000E-2,   0.30000,  400.00,  440.00,    1.00,  0.00000,  0.00000,  0.00000,  0.00000,1,1,   0.00,   1,1.0000
   201,   202,'1 ', 2.00000E-3, 2.50000E-2,   2.00000, 1200.00, 1300.00,    1.00,  0.00000,  0.00000,  0.00000,  0.00000,1,1,   0.00,  22,1.0000
   201,   204,'1 ', 3.00000E-3, 3.00000E-2,   2.50000, 1200.00, 1300.00,    1.00,  0.00000,  0.00000,  0.00000,  0.00000,1,1,   0.00,  22,1.0000
   203,   205,'1 ', 5.00000E-3, 4.50000E-2,   0.08000,  200.00,  250.00,    1.00,  0.00000,  0.00000,  0.00000,  0.00000,1,2,   0.00,   2,1.0000
   203,   205,'2 ', 5.00000E-3, 4.50000E-2,   0.08000,  200.00,  250.00,    1.00,  0.00000,  0.00000,  0.00000,  0.00000,1,2,   0.00,   2,1.0000
  3001,  3003,'1 ', 0.00000E+0, 8.00000E-3,   0.00000,    0.00,    0.00,    1.00,  0.00000,  0.00000,  0.00000,  0.00000,1,1,   0.00,  55,1.0000
  3002,  3004,'1 ', 6.00000E-3, 5.40000E-2,   0.09000,    0.00,    0.00,    1.00,  0.00000,  0.00000,  0.00000,  0.00000,1,1,   0.00,   5,1.0000
  3003,  3005,'1 ', 6.00000E-3, 5.40000E-2,   0.09000,    0.00,    0.00,    1.00,  0.00000,  0.00000,  0.00000,  0.00000,1,1,   0.00,   5,1.0000
  3003,  3005,'2 ', 6.00000E-3, 5.40000E-2,   0.09000,    0.00,    0.00,    1.00,  0.00000,  0.00000,  0.00000,  0.00000,1,1,   0.00,   5,1.0000
  3005,  3006,'1 ', 3.50000E-3, 3.00000E-2,   0.07000,    0.00,    0.00,    1.00,  0.00000,  0.00000,  0.00000,  0.00000,1,1,   0.00,   5,1.0000
  3005,  3007,'1 ', 3.00000E-3, 2.50000E-2,   0.06000,    0.00,    0.00,    1.00,  0.00000,  0.00000,  0.00000,  0.00000,1,1,   0.00,   5,1.0000
  3005,  3008,'1 ', 6.00000E-3, 5.00000E-2,   0.12000,    0.00,    0.00,    1.00,  0.00000,  0.00000,  0.00000,  0.00000,1,1,   0.00,   5,1.0000
  3007,  3008,'1 ', 3.00000E-3, 2.50000E-2,   0.06000,    0.00,    0.00,    1.00,  0.00000,  0.00000,  0.00000,  0.00000,1,1,   0.00,   5,1.0000
0 / END OF BRANCH DATA, BEGIN TRANSFORMER DATA
   151,   101,     0,'1 ',1,1,1, 0.00000E+0, 0.00000E+0,2,'            ',1,   1,1.0000,   0,1.0000,   0,1.0000,   0,1.0000,'            '
 3.00000E-4, 1.36000E-2,   100.00
1.00000,   0.000,   0.000,  1250.00,  1350.00,  1750.00, 0,      0, 1.10000, 0.90000, 1.10000, 0.90000,   5, 0, 0.00000, 0.00000,  0.000
1.00000,   0.000
   151,   102,     0,'1 ',1,1,1, 0.00000E+0, 0.00000E+0,2,'            ',1,   1,1.0000,   0,1.0000,   0,1.0000,   0,1.0000,'            '
 3.00000E-4, 1.36000E-2,   100.00
1.00000,   0.000,   0.000,  1250.00,  1350.00,  1750.00, 0,      0, 1.10000, 0.90000, 1.10000, 0.90000,   5, 0, 0.00000, 0.00000,  0.000
1.00000,   0.000
   152,   153,     0,'1 ',1,1,1, 0.00000E+0, 0.00000E+0,2,'            ',1,   1,1.0000,   0,1.0000,   0,1.0000,   0,1.0000,'            '
 0.00000E+0, 5.00000E-3,   100.00
1.01000,   0.000,   0.000,  2500.00,  3000.00,  3500.00, 1,    154, 1.05000, 0.95000, 1.00000, 0.98000,  33, 0, 0.00000, 0.00000,  0.000
1.00000,   0.000
   201,   211,     0,'1 ',1,1,1, 0.00000E+0, 0.00000E+0,2,'            ',1,  22,1.0000,   0,1.0000,   0,1.0000,   0,1.0000,'            '
 7.00000E-4, 2.12500E-2,   100.00
1.00000,   0.000,   0.000,   800.00,  1000.00,  1120.00, 0,    201, 1.10000, 0.90000, 1.05000, 0.95000,   5, 0, 0.00000, 0.00000,  0.000
1.00000,   0.000
   202,   203,     0,'1 ',1,1,1, 0.00000E+0, 0.00000E+0,2,'            ',1,   2,1.0000,   0,1.0000,   0,1.0000,   0,1.0000,'            '
 4.00000E-4, 1.62500E-2,   100.00
1.00000,   0.000,   0.000,   800.00,  1040.00,  1200.00, 3,      0,30.00000,-30.0000,555.0000,545.0000,  33, 0, 0.00000, 0.00000,  0.000
1.00000,   0.000
   204,   205,     0,'1 ',1,1,1, 0.00000E+0, 0.00000E+0,2,'            ',1,   2,1.0000,   0,1.0000,   0,1.0000,   0,1.0000,'            '
 3.00000E-4, 1.50000E-2,   100.00
1.00000,   0.000,   0.000,   800.00,  1040.00,  1200.00, 1,    205, 1.05000, 0.95000, 1.00000, 0.98000,  33, 0, 0.00000, 0.00000,  0.000
1.00000,   0.000
   205,   206,     0,'1 ',1,1,1, 0.00000E+0, 0.00000E+0,2,'            ',1,   2,1.0000,   0,1.0000,   0,1.0000,   0,1.0000,'            '
 2.60000E-4, 1.33300E-2,   100.00
1.00000,   0.000,   0.000,   900.00,  1080.00,  1350.00, 0,      0, 1.10000, 0.90000, 1.10000, 0.90000,   5, 0, 0.00000, 0.00000,  0.000
1.00000,   0.000
  3001,  3002,     0,'1 ',1,1,1, 0.00000E+0, 0.00000E+0,1,'            ',1,  55,1.0000,   0,1.0000,   0,1.0000,   0,1.0000,'            '
 3.00000E-4, 1.50000E-2,   100.00
1.00000,   0.000,   0.000,   800.00,  1040.00,  1200.00, 0,      0, 1.10000, 0.90000, 1.05000, 0.95000,  33, 0, 0.00000, 0.00000,  0.000
1.00000,   0.000
  3001,  3011,     0,'1 ',1,1,1, 0.00000E+0, 0.00000E+0,2,'            ',1,  55,1.0000,   0,1.0000,   0,1.0000,   0,1.0000,'            '
 2.00000E-4, 1.00000E-2,   100.00
1.00000,   0.000,   0.000,  1300.00,  1560.00,  1820.00, 0,      0, 1.10000, 0.90000, 1.05000, 0.95000,   5, 0, 0.00000, 0.00000,  0.000
1.00000,   0.000
  3004,  3005,     0,'1 ',1,1,1, 0.00000E+0, 0.00000E+0,1,'            ',1,   5,1.0000,   0,1.0000,   0,1.0000,   0,1.0000,'            '
 4.00000E-4, 1.62500E-2,   100.00
1.00000,   0.000,   0.000,   800.00,  1040.00,  1200.00, 0,      0, 1.10000, 0.90000, 1.05000, 0.95000,  33, 0, 0.00000, 0.00000,  0.000
1.00000,   0.000
  3008,  3018,     0,'1 ',1,1,1, 0.00000E+0, 0.00000E+0,2,'            ',1,  55,1.0000,   0,1.0000,   0,1.0000,   0,1.0000,'            '
 2.10000E-4, 8.50000E-2,   100.00
1.00000,   0.000,   0.000,   150.00,   200.00,   250.00, 0,      0, 1.10000, 0.90000, 1.05000, 0.95000,   5, 0, 0.00000, 0.00000,  0.000
1.00000,   0.000
0 / END OF TRANSFORMER DATA, BEGIN AREA DATA
   1,   101,   250.000,    10.000,'FLAPCO      '
   2,   206,  -100.000,    10.000,'LIGHTCO     '
   5,  3011,  -150.000,    10.000,'WORLD       '
0 / END OF AREA DATA, BEGIN TWO-TERMINAL DC DATA
0 / END OF TWO-TERMINAL DC DATA, BEGIN VSC DC LINE DATA
0 / END OF VSC DC LINE DATA, BEGIN IMPEDANCE CORRECTION DATA
0 / END OF IMPEDANCE CORRECTION DATA, BEGIN MULTI-TERMINAL DC DATA
0 / END OF MULTI-TERMINAL DC DATA, BEGIN MULTI-SECTION LINE DATA
   201,   205,'&1',1,   204
  3005,  3008,'&1',2,  3007
0 / END OF MULTI-SECTION LINE DATA, BEGIN ZONE DATA
   1,'FIRST       '
   2,'SECOND      '
   5,'FIFTH       '
  77,'PLANT       '
0 / END OF ZONE DATA, BEGIN INTER-AREA TRANSFER DATA
   1,   2,'A',    70.00
   1,   2,'B',    30.00
   1,   5,'A',   100.00
   1,   5,'B',    50.00
0 / END OF INTER-AREA TRANSFER DATA, BEGIN OWNER DATA
   1,'TRAN 1      '
   2,'TRAN 2      '
   5,'TRAN 5      '
  11,'GEN 1       '
  22,'GEN 2       '
  55,'GEN 5       '
 100,'NO BUSES    '
0 / END OF OWNER DATA, BEGIN FACTS DEVICE DATA
0 / END OF FACTS DEVICE DATA, BEGIN SWITCHED SHUNT DATA
0 / END OF SWITCHED SHUNT DATA, BEGIN GNE DATA
0 / END OF GNE DATA, BEGIN INDUCTION MACHINE DATA
0 / END OF INDUCTION MACHINE DATA
Q
